<?xml version="1.0" encoding="UTF-8"?>

<!-- generated on 2025-11-06 17:50:02 by Eclipse SUMO netedit Version 1.24.0
<neteditConfiguration xmlns:xsi="http://www.w3.org/2001/XMLSchema-instance" xsi:noNamespaceSchemaLocation="http://sumo.dlr.de/xsd/neteditConfiguration.xsd">

    <input>
        <sumocfg-file value="/media/nyrina/TNR/dev/trafic_system/carrefour4/simulation.sumocfg"/>
        <route-files value="/media/nyrina/TNR/dev/trafic_system/carrefour4/simulation.rou.xml"/>
        <sumo-net-file value="/media/nyrina/TNR/dev/trafic_system/carrefour4/simulation.net.xml"/>
    </input>

    <output>
        <output-file value="/media/nyrina/TNR/dev/trafic_system/carrefour4/simulation.net.xml"/>
    </output>

    <processing>
        <geometry.min-radius.fix.railways value="false"/>
        <geometry.avoid-overlap value="false"/>
        <geometry.max-grade.fix value="false"/>
        <offset.disable-normalization value="true"/>
        <lefthand value="0"/>
    </processing>

    <junctions>
        <no-internal-links value="false"/>
        <no-turnarounds value="true"/>
        <junctions.corner-detail value="5"/>
        <junctions.limit-turn-speed value="5.50"/>
        <rectangular-lane-cut value="0"/>
    </junctions>

    <pedestrian>
        <walkingareas value="0"/>
    </pedestrian>

</neteditConfiguration>
-->

<net version="1.20" junctionCornerDetail="5" limitTurnSpeed="5.50" avoidOverlap="0" xmlns:xsi="http://www.w3.org/2001/XMLSchema-instance" xsi:noNamespaceSchemaLocation="http://sumo.dlr.de/xsd/net_file.xsd">

    <location netOffset="0.00,0.00" convBoundary="-72.48,-38.28,79.99,72.98" origBoundary="-10000000000.00,-10000000000.00,10000000000.00,10000000000.00" projParameter="!"/>

    <edge id=":J0_w0" function="walkingarea">
        <lane id=":J0_w0_0" index="0" allow="pedestrian" speed="2.78" length="8.40" width="2.00" shape="-72.45,14.57 -72.43,12.57 -72.49,22.97 -72.48,20.97"/>
    </edge>
    <edge id=":J1_w0" function="walkingarea">
        <lane id=":J1_w0_0" index="0" allow="pedestrian" speed="2.78" length="8.40" width="2.00" shape="79.99,22.11 79.99,24.11 80.02,13.71 80.01,15.71"/>
    </edge>
    <edge id=":J2_w0" function="walkingarea">
        <lane id=":J2_w0_0" index="0" allow="pedestrian" speed="2.78" length="8.40" width="2.00" shape="-3.39,-38.29 -1.39,-38.30 -11.79,-38.26 -9.79,-38.27"/>
    </edge>
    <edge id=":J8_w0" function="walkingarea">
        <lane id=":J8_w0_0" index="0" allow="pedestrian" speed="2.78" length="8.40" width="2.00" shape="-9.15,72.98 -11.15,72.98 -0.75,72.98 -2.75,72.98"/>
    </edge>
    <edge id=":clusterJ7_clusterJ3_J5_J6_0" function="internal">
        <lane id=":clusterJ7_clusterJ3_J5_J6_0_0" index="0" disallow="pedestrian" speed="6.92" length="6.01" shape="-7.56,26.24 -7.94,23.27 -9.06,21.15 -9.57,20.81"/>
    </edge>
    <edge id=":clusterJ7_clusterJ3_J5_J6_1" function="internal">
        <lane id=":clusterJ7_clusterJ3_J5_J6_1_0" index="0" disallow="pedestrian" speed="13.89" length="15.04" shape="-7.56,26.24 -7.97,11.21"/>
    </edge>
    <edge id=":clusterJ7_clusterJ3_J5_J6_2" function="internal">
        <lane id=":clusterJ7_clusterJ3_J5_J6_2_0" index="0" disallow="pedestrian" speed="8.11" length="4.16" shape="-7.56,26.24 -7.01,22.12"/>
    </edge>
    <edge id=":clusterJ7_clusterJ3_J5_J6_12" function="internal">
        <lane id=":clusterJ7_clusterJ3_J5_J6_12_0" index="0" disallow="pedestrian" speed="6.92" length="4.32" shape="-9.57,20.81 -10.94,19.87 -13.56,19.45"/>
    </edge>
    <edge id=":clusterJ7_clusterJ3_J5_J6_13" function="internal">
        <lane id=":clusterJ7_clusterJ3_J5_J6_13_0" index="0" disallow="pedestrian" speed="8.11" length="10.50" shape="-7.01,22.12 -5.37,19.18 -2.63,17.43 1.21,16.86"/>
    </edge>
    <edge id=":clusterJ7_clusterJ3_J5_J6_3" function="internal">
        <lane id=":clusterJ7_clusterJ3_J5_J6_3_0" index="0" disallow="pedestrian" speed="6.63" length="5.14" shape="1.59,20.50 -1.01,20.86 -2.87,21.93 -3.06,22.24"/>
    </edge>
    <edge id=":clusterJ7_clusterJ3_J5_J6_4" function="internal">
        <lane id=":clusterJ7_clusterJ3_J5_J6_4_0" index="0" disallow="pedestrian" speed="13.89" length="15.19" shape="1.59,20.50 -13.56,19.45"/>
    </edge>
    <edge id=":clusterJ7_clusterJ3_J5_J6_5" function="internal">
        <lane id=":clusterJ7_clusterJ3_J5_J6_5_0" index="0" disallow="pedestrian" speed="8.07" length="5.24" shape="1.59,20.50 -1.77,19.67 -3.23,18.66"/>
    </edge>
    <edge id=":clusterJ7_clusterJ3_J5_J6_14" function="internal">
        <lane id=":clusterJ7_clusterJ3_J5_J6_14_0" index="0" disallow="pedestrian" speed="6.63" length="4.29" shape="-3.06,22.24 -3.99,23.73 -4.36,26.24"/>
    </edge>
    <edge id=":clusterJ7_clusterJ3_J5_J6_15" function="internal">
        <lane id=":clusterJ7_clusterJ3_J5_J6_15_0" index="0" disallow="pedestrian" speed="8.07" length="9.15" shape="-3.23,18.66 -4.85,17.52 -7.09,14.54 -7.97,11.21"/>
    </edge>
    <edge id=":clusterJ7_clusterJ3_J5_J6_6" function="internal">
        <lane id=":clusterJ7_clusterJ3_J5_J6_6_0" index="0" disallow="pedestrian" speed="6.64" length="5.17" shape="-4.77,11.20 -4.38,13.66 -3.26,15.43 -2.75,15.71"/>
    </edge>
    <edge id=":clusterJ7_clusterJ3_J5_J6_7" function="internal">
        <lane id=":clusterJ7_clusterJ3_J5_J6_7_0" index="0" disallow="pedestrian" speed="13.89" length="15.05" shape="-4.77,11.20 -4.36,26.24"/>
    </edge>
    <edge id=":clusterJ7_clusterJ3_J5_J6_8" function="internal">
        <lane id=":clusterJ7_clusterJ3_J5_J6_8_0" index="0" disallow="pedestrian" speed="7.87" length="3.65" shape="-4.77,11.20 -5.30,14.81"/>
    </edge>
    <edge id=":clusterJ7_clusterJ3_J5_J6_16" function="internal">
        <lane id=":clusterJ7_clusterJ3_J5_J6_16_0" index="0" disallow="pedestrian" speed="6.64" length="4.20" shape="-2.75,15.71 -1.39,16.49 1.21,16.86"/>
    </edge>
    <edge id=":clusterJ7_clusterJ3_J5_J6_17" function="internal">
        <lane id=":clusterJ7_clusterJ3_J5_J6_17_0" index="0" disallow="pedestrian" speed="7.87" length="10.12" shape="-5.30,14.81 -6.95,17.39 -9.70,18.93 -13.56,19.45"/>
    </edge>
    <edge id=":clusterJ7_clusterJ3_J5_J6_9" function="internal">
        <lane id=":clusterJ7_clusterJ3_J5_J6_9_0" index="0" disallow="pedestrian" speed="6.48" length="4.77" shape="-13.56,16.81 -11.10,16.48 -9.35,15.44 -9.22,15.22"/>
    </edge>
    <edge id=":clusterJ7_clusterJ3_J5_J6_10" function="internal">
        <lane id=":clusterJ7_clusterJ3_J5_J6_10_0" index="0" disallow="pedestrian" speed="13.89" length="14.78" shape="-13.56,16.81 1.21,16.86"/>
    </edge>
    <edge id=":clusterJ7_clusterJ3_J5_J6_11" function="internal">
        <lane id=":clusterJ7_clusterJ3_J5_J6_11_0" index="0" disallow="pedestrian" speed="8.04" length="1.62" shape="-13.56,16.81 -11.99,17.22"/>
    </edge>
    <edge id=":clusterJ7_clusterJ3_J5_J6_18" function="internal">
        <lane id=":clusterJ7_clusterJ3_J5_J6_18_0" index="0" disallow="pedestrian" speed="6.48" length="4.28" shape="-9.22,15.22 -8.31,13.68 -7.97,11.21"/>
    </edge>
    <edge id=":clusterJ7_clusterJ3_J5_J6_19" function="internal">
        <lane id=":clusterJ7_clusterJ3_J5_J6_19_0" index="0" disallow="pedestrian" speed="8.04" length="12.60" shape="-11.99,17.22 -10.27,17.68 -7.31,19.89 -5.18,22.92 -4.36,26.24"/>
    </edge>
    <edge id=":clusterJ7_clusterJ3_J5_J6_c0" function="crossing" crossingEdges="E2 -E2">
        <lane id=":clusterJ7_clusterJ3_J5_J6_c0_0" index="0" allow="pedestrian" speed="2.78" length="6.40" width="4.00" shape="-2.76,24.24 -9.16,24.24" outlineShape="-2.76,26.24 -9.26,26.24 -9.28,24.65 -9.65,23.36 -10.26,22.35 -10.39,22.24 0.19,22.24 -0.83,22.56 -1.67,23.13 -2.28,23.94 -2.64,24.97"/>
    </edge>
    <edge id=":clusterJ7_clusterJ3_J5_J6_c1" function="crossing" crossingEdges="E0.46 -E0">
        <lane id=":clusterJ7_clusterJ3_J5_J6_c1_0" index="0" allow="pedestrian" speed="2.78" length="6.86" width="4.00" shape="-0.78,15.25 -0.41,22.10" outlineShape="1.22,15.04 1.59,22.09 0.26,22.22 -0.83,22.56 -1.67,23.13 -2.28,23.94 -2.91,12.78 -2.67,13.44 -2.06,14.23 -1.21,14.80 -0.11,15.14"/>
    </edge>
    <edge id=":clusterJ7_clusterJ3_J5_J6_c2" function="crossing" crossingEdges="-E1 E1">
        <lane id=":clusterJ7_clusterJ3_J5_J6_c2_0" index="0" allow="pedestrian" speed="2.78" length="6.40" width="4.00" shape="-9.56,13.22 -3.16,13.19" outlineShape="-9.57,11.22 -3.17,11.19 -3.04,12.43 -2.67,13.44 -2.06,14.23 -1.21,14.80 -1.04,14.85 -3.15,15.19 -9.55,15.22 -11.66,14.89 -11.33,14.78 -10.55,14.23 -10.00,13.45 -9.67,12.45"/>
    </edge>
    <edge id=":clusterJ7_clusterJ3_J5_J6_c3" function="crossing" crossingEdges="-E0.49 E0">
        <lane id=":clusterJ7_clusterJ3_J5_J6_c3_0" index="0" allow="pedestrian" speed="2.78" length="5.82" width="4.00" shape="-11.57,21.05 -11.54,15.23" outlineShape="-13.57,21.14 -13.54,15.12 -12.32,15.11 -11.33,14.78 -10.55,14.23 -10.00,13.45 -9.89,13.12 -9.54,15.23 -9.57,21.06 -9.76,23.17 -10.26,22.35 -11.12,21.63 -12.22,21.19"/>
    </edge>
    <edge id=":clusterJ7_clusterJ3_J5_J6_w0" function="walkingarea">
        <lane id=":clusterJ7_clusterJ3_J5_J6_w0_0" index="0" allow="pedestrian" speed="2.78" length="4.03" width="4.00" shape="-13.57,21.05 -13.57,23.05 -11.16,26.24 -9.16,26.24 -9.28,24.65 -9.65,23.36 -10.26,22.35 -11.12,21.63 -12.22,21.19"/>
    </edge>
    <edge id=":clusterJ7_clusterJ3_J5_J6_w1" function="walkingarea">
        <lane id=":clusterJ7_clusterJ3_J5_J6_w1_0" index="0" allow="pedestrian" speed="2.78" length="3.63" width="4.00" shape="-2.76,26.24 -0.76,26.24 1.86,24.10 1.86,22.10 1.59,21.99 0.26,22.22 -0.83,22.56 -1.67,23.13 -2.28,23.94 -2.64,24.97"/>
    </edge>
    <edge id=":clusterJ7_clusterJ3_J5_J6_w2" function="walkingarea">
        <lane id=":clusterJ7_clusterJ3_J5_J6_w2_0" index="0" allow="pedestrian" speed="2.78" length="3.38" width="4.00" shape="1.22,15.14 0.94,15.26 0.95,13.26 -1.17,11.18 -3.17,11.19 -3.04,12.43 -2.67,13.44 -2.06,14.23 -1.21,14.80 -0.11,15.14"/>
    </edge>
    <edge id=":clusterJ7_clusterJ3_J5_J6_w3" function="walkingarea">
        <lane id=":clusterJ7_clusterJ3_J5_J6_w3_0" index="0" allow="pedestrian" speed="2.78" length="3.30" width="4.00" shape="-9.57,11.22 -11.57,11.23 -13.55,13.21 -13.57,15.20 -12.32,15.11 -11.33,14.78 -10.55,14.23 -10.00,13.45 -9.67,12.45"/>
    </edge>

    <edge id="-E0" from="J1" to="clusterJ7_clusterJ3_J5_J6" priority="-1" shape="79.99,18.91 -0.72,18.90 -7.86,18.49">
        <lane id="-E0_0" index="0" allow="pedestrian" speed="13.89" length="78.27" width="2.00" shape="79.99,23.11 1.86,23.10"/>
        <lane id="-E0_1" index="1" disallow="pedestrian" speed="13.89" length="78.27" shape="79.99,20.51 1.59,20.50"/>
    </edge>
    <edge id="-E0.49" from="clusterJ7_clusterJ3_J5_J6" to="J0" priority="-1" shape="-10.44,17.85 -72.48,17.77">
        <lane id="-E0.49_0" index="0" allow="pedestrian" speed="13.89" length="58.92" width="2.00" shape="-13.57,22.05 -72.49,21.97"/>
        <lane id="-E0.49_1" index="1" disallow="pedestrian" speed="13.89" length="58.92" shape="-13.56,19.45 -72.48,19.37"/>
    </edge>
    <edge id="-E1" from="clusterJ7_clusterJ3_J5_J6" to="J2" priority="-1" shape="-6.36,12.53 -6.59,-38.28">
        <lane id="-E1_0" index="0" allow="pedestrian" speed="13.89" length="49.48" width="2.00" shape="-10.57,11.22 -10.79,-38.26"/>
        <lane id="-E1_1" index="1" disallow="pedestrian" speed="13.89" length="49.48" shape="-7.97,11.21 -8.19,-38.27"/>
    </edge>
    <edge id="-E2" from="J8" to="clusterJ7_clusterJ3_J5_J6" priority="-1" shape="-5.95,72.98 -5.96,26.24">
        <lane id="-E2_0" index="0" allow="pedestrian" speed="13.89" length="46.74" width="2.00" shape="-10.15,72.98 -10.16,26.24"/>
        <lane id="-E2_1" index="1" disallow="pedestrian" speed="13.89" length="46.74" shape="-7.55,72.98 -7.56,26.24"/>
    </edge>
    <edge id="E0" from="J0" to="clusterJ7_clusterJ3_J5_J6" priority="-1" shape="-72.48,17.77 -61.12,17.89 -9.43,18.45">
        <lane id="E0_0" index="0" allow="pedestrian" speed="13.89" length="58.89" width="2.00" shape="-72.44,13.57 -61.07,13.69 -13.56,14.21"/>
        <lane id="E0_1" index="1" disallow="pedestrian" speed="13.89" length="58.89" shape="-72.46,16.17 -61.10,16.29 -13.56,16.81"/>
    </edge>
    <edge id="E0.46" from="clusterJ7_clusterJ3_J5_J6" to="J1" priority="-1" shape="-14.47,18.84 -8.83,18.20 -0.39,18.45 79.99,18.91">
        <lane id="E0.46_0" index="0" allow="pedestrian" speed="13.89" length="78.93" width="2.00" shape="0.95,14.26 80.01,14.71"/>
        <lane id="E0.46_1" index="1" disallow="pedestrian" speed="13.89" length="78.93" shape="1.21,16.86 80.00,17.31"/>
    </edge>
    <edge id="E1" from="J2" to="clusterJ7_clusterJ3_J5_J6" priority="-1" shape="-6.59,-38.28 -6.36,12.53">
        <lane id="E1_0" index="0" allow="pedestrian" speed="13.89" length="49.48" width="2.00" shape="-2.39,-38.30 -2.17,11.18"/>
        <lane id="E1_1" index="1" disallow="pedestrian" speed="13.89" length="49.48" shape="-4.99,-38.29 -4.77,11.20"/>
    </edge>
    <edge id="E2" from="clusterJ7_clusterJ3_J5_J6" to="J8" priority="-1" shape="-5.96,26.24 -5.95,72.98">
        <lane id="E2_0" index="0" allow="pedestrian" speed="13.89" length="46.74" width="2.00" shape="-1.76,26.24 -1.75,72.98"/>
        <lane id="E2_1" index="1" disallow="pedestrian" speed="13.89" length="46.74" shape="-4.36,26.24 -4.35,72.98"/>
    </edge>

    <tlLogic id="clusterJ7_clusterJ3_J5_J6" type="actuated" programID="0" offset="0">
        <phase duration="37" state="gGgrrrgGgrrrrGrG" minDur="5" maxDur="50"/>
        <phase duration="5"  state="gGgrrrgGgrrrrrrr"/>
        <phase duration="3"  state="yyyrrryyyrrrrrrr"/>
        <phase duration="37" state="rrrgGgrrrgGgGrGr" minDur="5" maxDur="50"/>
        <phase duration="5"  state="rrrgGgrrrgGgrrrr"/>
        <phase duration="3"  state="rrryyyrrryyyrrrr"/>
    </tlLogic>

    <junction id="J0" type="dead_end" x="-72.48" y="17.77" incLanes="-E0.49_0 -E0.49_1" intLanes="" shape="-72.48,17.77 -72.43,12.57 -72.49,22.97"/>
    <junction id="J1" type="dead_end" x="79.99" y="18.91" incLanes="E0.46_0 E0.46_1" intLanes="" shape="79.99,18.91 79.99,24.11 80.02,13.71"/>
    <junction id="J2" type="dead_end" x="-6.59" y="-38.28" incLanes="-E1_0 -E1_1" intLanes="" shape="-6.59,-38.28 -11.79,-38.26 -6.59,-38.28"/>
    <junction id="J8" type="dead_end" x="-5.95" y="72.98" incLanes="E2_0 E2_1" intLanes="" shape="-5.95,72.98 -0.75,72.98 -5.95,72.98"/>
    <junction id="clusterJ7_clusterJ3_J5_J6" type="traffic_light" x="-7.76" y="21.43" incLanes="-E2_0 -E2_1 -E0_0 -E0_1 E1_0 E1_1 E0_0 E0_1 :clusterJ7_clusterJ3_J5_J6_w1_0 :clusterJ7_clusterJ3_J5_J6_w2_0 :clusterJ7_clusterJ3_J5_J6_w3_0 :clusterJ7_clusterJ3_J5_J6_w0_0" intLanes=":clusterJ7_clusterJ3_J5_J6_12_0 :clusterJ7_clusterJ3_J5_J6_1_0 :clusterJ7_clusterJ3_J5_J6_13_0 :clusterJ7_clusterJ3_J5_J6_14_0 :clusterJ7_clusterJ3_J5_J6_4_0 :clusterJ7_clusterJ3_J5_J6_15_0 :clusterJ7_clusterJ3_J5_J6_16_0 :clusterJ7_clusterJ3_J5_J6_7_0 :clusterJ7_clusterJ3_J5_J6_17_0 :clusterJ7_clusterJ3_J5_J6_18_0 :clusterJ7_clusterJ3_J5_J6_10_0 :clusterJ7_clusterJ3_J5_J6_19_0 :clusterJ7_clusterJ3_J5_J6_c0_0 :clusterJ7_clusterJ3_J5_J6_c1_0 :clusterJ7_clusterJ3_J5_J6_c2_0 :clusterJ7_clusterJ3_J5_J6_c3_0" shape="-11.16,26.24 -0.76,26.24 -0.46,25.05 -0.08,24.63 0.45,24.34 1.13,24.16 1.96,24.10 0.84,13.26 -0.27,13.02 -0.66,12.73 -0.94,12.33 -1.11,11.81 -1.17,11.18 -11.57,11.23 -11.78,12.34 -12.06,12.72 -12.45,12.99 -12.95,13.16 -13.56,13.20 -13.57,23.05 -12.23,23.40 -11.76,23.85 -11.43,24.47 -11.23,25.27">
        <request index="0"  response="1001000000000000" foes="1001000100010000" cont="1"/>
        <request index="1"  response="0101101000100000" foes="0101111100110000" cont="0"/>
        <request index="2"  response="0011100111100000" foes="0011110111110000" cont="1"/>
        <request index="3"  response="0011000010000000" foes="0011100010000000" cont="1"/>
        <request index="4"  response="1010000110000111" foes="1010100110000111" cont="0"/>
        <request index="5"  response="0110011110000110" foes="0110011110000110" cont="1"/>
        <request index="6"  response="0110000000000000" foes="0110010000000100" cont="1"/>
        <request index="7"  response="0101100000101000" foes="0101110000111100" cont="0"/>
        <request index="8"  response="1100100000100011" foes="1100110000110111" cont="1"/>
        <request index="9"  response="1100000000000010" foes="1100000000100010" cont="1"/>
        <request index="10" response="1010000111000110" foes="1010000111100110" cont="0"/>
        <request index="11" response="1001000110011110" foes="1001000110011110" cont="1"/>
        <request index="12" response="0000000000000000" foes="0000100010001111" cont="0"/>
        <request index="13" response="0000000000000000" foes="0000010001111100" cont="0"/>
        <request index="14" response="0000000000000000" foes="0000001111100010" cont="0"/>
        <request index="15" response="0000000000000000" foes="0000111100010001" cont="0"/>
    </junction>

    <junction id=":clusterJ7_clusterJ3_J5_J6_12_0" type="internal" x="-9.57" y="20.81" incLanes=":clusterJ7_clusterJ3_J5_J6_0_0" intLanes=":clusterJ7_clusterJ3_J5_J6_4_0 :clusterJ7_clusterJ3_J5_J6_8_0 :clusterJ7_clusterJ3_J5_J6_c0_0 :clusterJ7_clusterJ3_J5_J6_c3_0"/>
    <junction id=":clusterJ7_clusterJ3_J5_J6_13_0" type="internal" x="-7.01" y="22.12" incLanes=":clusterJ7_clusterJ3_J5_J6_2_0 E1_1" intLanes=":clusterJ7_clusterJ3_J5_J6_4_0 :clusterJ7_clusterJ3_J5_J6_5_0 :clusterJ7_clusterJ3_J5_J6_6_0 :clusterJ7_clusterJ3_J5_J6_7_0 :clusterJ7_clusterJ3_J5_J6_10_0 :clusterJ7_clusterJ3_J5_J6_11_0 :clusterJ7_clusterJ3_J5_J6_c0_0 :clusterJ7_clusterJ3_J5_J6_c1_0"/>
    <junction id=":clusterJ7_clusterJ3_J5_J6_14_0" type="internal" x="-3.06" y="22.24" incLanes=":clusterJ7_clusterJ3_J5_J6_3_0" intLanes=":clusterJ7_clusterJ3_J5_J6_7_0 :clusterJ7_clusterJ3_J5_J6_11_0 :clusterJ7_clusterJ3_J5_J6_c0_0 :clusterJ7_clusterJ3_J5_J6_c1_0"/>
    <junction id=":clusterJ7_clusterJ3_J5_J6_15_0" type="internal" x="-3.23" y="18.66" incLanes=":clusterJ7_clusterJ3_J5_J6_5_0 E0_1" intLanes=":clusterJ7_clusterJ3_J5_J6_1_0 :clusterJ7_clusterJ3_J5_J6_2_0 :clusterJ7_clusterJ3_J5_J6_7_0 :clusterJ7_clusterJ3_J5_J6_8_0 :clusterJ7_clusterJ3_J5_J6_9_0 :clusterJ7_clusterJ3_J5_J6_10_0 :clusterJ7_clusterJ3_J5_J6_c1_0 :clusterJ7_clusterJ3_J5_J6_c2_0"/>
    <junction id=":clusterJ7_clusterJ3_J5_J6_16_0" type="internal" x="-2.75" y="15.71" incLanes=":clusterJ7_clusterJ3_J5_J6_6_0" intLanes=":clusterJ7_clusterJ3_J5_J6_2_0 :clusterJ7_clusterJ3_J5_J6_10_0 :clusterJ7_clusterJ3_J5_J6_c1_0 :clusterJ7_clusterJ3_J5_J6_c2_0"/>
    <junction id=":clusterJ7_clusterJ3_J5_J6_17_0" type="internal" x="-5.30" y="14.81" incLanes=":clusterJ7_clusterJ3_J5_J6_8_0 -E2_1" intLanes=":clusterJ7_clusterJ3_J5_J6_0_0 :clusterJ7_clusterJ3_J5_J6_1_0 :clusterJ7_clusterJ3_J5_J6_4_0 :clusterJ7_clusterJ3_J5_J6_5_0 :clusterJ7_clusterJ3_J5_J6_10_0 :clusterJ7_clusterJ3_J5_J6_11_0 :clusterJ7_clusterJ3_J5_J6_c2_0 :clusterJ7_clusterJ3_J5_J6_c3_0"/>
    <junction id=":clusterJ7_clusterJ3_J5_J6_18_0" type="internal" x="-9.22" y="15.22" incLanes=":clusterJ7_clusterJ3_J5_J6_9_0" intLanes=":clusterJ7_clusterJ3_J5_J6_1_0 :clusterJ7_clusterJ3_J5_J6_5_0 :clusterJ7_clusterJ3_J5_J6_c2_0 :clusterJ7_clusterJ3_J5_J6_c3_0"/>
    <junction id=":clusterJ7_clusterJ3_J5_J6_19_0" type="internal" x="-11.99" y="17.22" incLanes=":clusterJ7_clusterJ3_J5_J6_11_0 -E0_1" intLanes=":clusterJ7_clusterJ3_J5_J6_1_0 :clusterJ7_clusterJ3_J5_J6_2_0 :clusterJ7_clusterJ3_J5_J6_3_0 :clusterJ7_clusterJ3_J5_J6_4_0 :clusterJ7_clusterJ3_J5_J6_7_0 :clusterJ7_clusterJ3_J5_J6_8_0 :clusterJ7_clusterJ3_J5_J6_c0_0 :clusterJ7_clusterJ3_J5_J6_c3_0"/>

    <connection from="-E0" to="E2" fromLane="1" toLane="1" via=":clusterJ7_clusterJ3_J5_J6_3_0" tl="clusterJ7_clusterJ3_J5_J6" linkIndex="3" dir="r" state="o"/>
    <connection from="-E0" to="-E0.49" fromLane="1" toLane="1" via=":clusterJ7_clusterJ3_J5_J6_4_0" tl="clusterJ7_clusterJ3_J5_J6" linkIndex="4" dir="s" state="o"/>
    <connection from="-E0" to="-E1" fromLane="1" toLane="1" via=":clusterJ7_clusterJ3_J5_J6_5_0" tl="clusterJ7_clusterJ3_J5_J6" linkIndex="5" dir="l" state="o"/>
    <connection from="-E2" to="-E0.49" fromLane="1" toLane="1" via=":clusterJ7_clusterJ3_J5_J6_0_0" tl="clusterJ7_clusterJ3_J5_J6" linkIndex="0" dir="r" state="o"/>
    <connection from="-E2" to="-E1" fromLane="1" toLane="1" via=":clusterJ7_clusterJ3_J5_J6_1_0" tl="clusterJ7_clusterJ3_J5_J6" linkIndex="1" dir="s" state="o"/>
    <connection from="-E2" to="E0.46" fromLane="1" toLane="1" via=":clusterJ7_clusterJ3_J5_J6_2_0" tl="clusterJ7_clusterJ3_J5_J6" linkIndex="2" dir="l" state="o"/>
    <connection from="E0" to="-E1" fromLane="1" toLane="1" via=":clusterJ7_clusterJ3_J5_J6_9_0" tl="clusterJ7_clusterJ3_J5_J6" linkIndex="9" dir="r" state="o"/>
    <connection from="E0" to="E0.46" fromLane="1" toLane="1" via=":clusterJ7_clusterJ3_J5_J6_10_0" tl="clusterJ7_clusterJ3_J5_J6" linkIndex="10" dir="s" state="o"/>
    <connection from="E0" to="E2" fromLane="1" toLane="1" via=":clusterJ7_clusterJ3_J5_J6_11_0" tl="clusterJ7_clusterJ3_J5_J6" linkIndex="11" dir="l" state="o"/>
    <connection from="E1" to="E0.46" fromLane="1" toLane="1" via=":clusterJ7_clusterJ3_J5_J6_6_0" tl="clusterJ7_clusterJ3_J5_J6" linkIndex="6" dir="r" state="o"/>
    <connection from="E1" to="E2" fromLane="1" toLane="1" via=":clusterJ7_clusterJ3_J5_J6_7_0" tl="clusterJ7_clusterJ3_J5_J6" linkIndex="7" dir="s" state="o"/>
    <connection from="E1" to="-E0.49" fromLane="1" toLane="1" via=":clusterJ7_clusterJ3_J5_J6_8_0" tl="clusterJ7_clusterJ3_J5_J6" linkIndex="8" dir="l" state="o"/>

    <connection from=":clusterJ7_clusterJ3_J5_J6_0" to="-E0.49" fromLane="0" toLane="1" via=":clusterJ7_clusterJ3_J5_J6_12_0" dir="r" state="m"/>
    <connection from=":clusterJ7_clusterJ3_J5_J6_12" to="-E0.49" fromLane="0" toLane="1" dir="r" state="m"/>
    <connection from=":clusterJ7_clusterJ3_J5_J6_1" to="-E1" fromLane="0" toLane="1" dir="s" state="M"/>
    <connection from=":clusterJ7_clusterJ3_J5_J6_2" to="E0.46" fromLane="0" toLane="1" via=":clusterJ7_clusterJ3_J5_J6_13_0" dir="l" state="m"/>
    <connection from=":clusterJ7_clusterJ3_J5_J6_13" to="E0.46" fromLane="0" toLane="1" dir="l" state="m"/>
    <connection from=":clusterJ7_clusterJ3_J5_J6_3" to="E2" fromLane="0" toLane="1" via=":clusterJ7_clusterJ3_J5_J6_14_0" dir="r" state="m"/>
    <connection from=":clusterJ7_clusterJ3_J5_J6_14" to="E2" fromLane="0" toLane="1" dir="r" state="m"/>
    <connection from=":clusterJ7_clusterJ3_J5_J6_4" to="-E0.49" fromLane="0" toLane="1" dir="s" state="M"/>
    <connection from=":clusterJ7_clusterJ3_J5_J6_5" to="-E1" fromLane="0" toLane="1" via=":clusterJ7_clusterJ3_J5_J6_15_0" dir="l" state="m"/>
    <connection from=":clusterJ7_clusterJ3_J5_J6_15" to="-E1" fromLane="0" toLane="1" dir="l" state="m"/>
    <connection from=":clusterJ7_clusterJ3_J5_J6_6" to="E0.46" fromLane="0" toLane="1" via=":clusterJ7_clusterJ3_J5_J6_16_0" dir="r" state="m"/>
    <connection from=":clusterJ7_clusterJ3_J5_J6_16" to="E0.46" fromLane="0" toLane="1" dir="r" state="m"/>
    <connection from=":clusterJ7_clusterJ3_J5_J6_7" to="E2" fromLane="0" toLane="1" dir="s" state="M"/>
    <connection from=":clusterJ7_clusterJ3_J5_J6_8" to="-E0.49" fromLane="0" toLane="1" via=":clusterJ7_clusterJ3_J5_J6_17_0" dir="l" state="m"/>
    <connection from=":clusterJ7_clusterJ3_J5_J6_17" to="-E0.49" fromLane="0" toLane="1" dir="l" state="m"/>
    <connection from=":clusterJ7_clusterJ3_J5_J6_9" to="-E1" fromLane="0" toLane="1" via=":clusterJ7_clusterJ3_J5_J6_18_0" dir="r" state="m"/>
    <connection from=":clusterJ7_clusterJ3_J5_J6_18" to="-E1" fromLane="0" toLane="1" dir="r" state="m"/>
    <connection from=":clusterJ7_clusterJ3_J5_J6_10" to="E0.46" fromLane="0" toLane="1" dir="s" state="M"/>
    <connection from=":clusterJ7_clusterJ3_J5_J6_11" to="E2" fromLane="0" toLane="1" via=":clusterJ7_clusterJ3_J5_J6_19_0" dir="l" state="m"/>
    <connection from=":clusterJ7_clusterJ3_J5_J6_19" to="E2" fromLane="0" toLane="1" dir="l" state="m"/>

    <connection from=":J0_w0" to="E0" fromLane="0" toLane="0" dir="s" state="M"/>
    <connection from="-E0.49" to=":J0_w0" fromLane="0" toLane="0" dir="s" state="M"/>
    <connection from=":J1_w0" to="-E0" fromLane="0" toLane="0" dir="s" state="M"/>
    <connection from="E0.46" to=":J1_w0" fromLane="0" toLane="0" dir="s" state="M"/>
    <connection from=":J2_w0" to="E1" fromLane="0" toLane="0" dir="s" state="M"/>
    <connection from="-E1" to=":J2_w0" fromLane="0" toLane="0" dir="s" state="M"/>
    <connection from=":J8_w0" to="-E2" fromLane="0" toLane="0" dir="s" state="M"/>
    <connection from="E2" to=":J8_w0" fromLane="0" toLane="0" dir="s" state="M"/>
    <connection from=":clusterJ7_clusterJ3_J5_J6_c0" to=":clusterJ7_clusterJ3_J5_J6_w0" fromLane="0" toLane="0" dir="s" state="M"/>
    <connection from=":clusterJ7_clusterJ3_J5_J6_c1" to=":clusterJ7_clusterJ3_J5_J6_w1" fromLane="0" toLane="0" dir="s" state="M"/>
    <connection from=":clusterJ7_clusterJ3_J5_J6_c2" to=":clusterJ7_clusterJ3_J5_J6_w2" fromLane="0" toLane="0" dir="s" state="M"/>
    <connection from=":clusterJ7_clusterJ3_J5_J6_c3" to=":clusterJ7_clusterJ3_J5_J6_w3" fromLane="0" toLane="0" dir="s" state="M"/>
    <connection from=":clusterJ7_clusterJ3_J5_J6_w0" to=":clusterJ7_clusterJ3_J5_J6_c3" fromLane="0" toLane="0" tl="clusterJ7_clusterJ3_J5_J6" linkIndex="15" dir="s" state="M"/>
    <connection from=":clusterJ7_clusterJ3_J5_J6_w0" to="-E0.49" fromLane="0" toLane="0" dir="s" state="M"/>
    <connection from="-E2" to=":clusterJ7_clusterJ3_J5_J6_w0" fromLane="0" toLane="0" dir="s" state="M"/>
    <connection from=":clusterJ7_clusterJ3_J5_J6_w1" to=":clusterJ7_clusterJ3_J5_J6_c0" fromLane="0" toLane="0" tl="clusterJ7_clusterJ3_J5_J6" linkIndex="12" dir="s" state="M"/>
    <connection from=":clusterJ7_clusterJ3_J5_J6_w1" to="E2" fromLane="0" toLane="0" dir="s" state="M"/>
    <connection from="-E0" to=":clusterJ7_clusterJ3_J5_J6_w1" fromLane="0" toLane="0" dir="s" state="M"/>
    <connection from=":clusterJ7_clusterJ3_J5_J6_w2" to=":clusterJ7_clusterJ3_J5_J6_c1" fromLane="0" toLane="0" tl="clusterJ7_clusterJ3_J5_J6" linkIndex="13" dir="s" state="M"/>
    <connection from=":clusterJ7_clusterJ3_J5_J6_w2" to="E0.46" fromLane="0" toLane="0" dir="s" state="M"/>
    <connection from="E1" to=":clusterJ7_clusterJ3_J5_J6_w2" fromLane="0" toLane="0" dir="s" state="M"/>
    <connection from=":clusterJ7_clusterJ3_J5_J6_w3" to=":clusterJ7_clusterJ3_J5_J6_c2" fromLane="0" toLane="0" tl="clusterJ7_clusterJ3_J5_J6" linkIndex="14" dir="s" state="M"/>
    <connection from=":clusterJ7_clusterJ3_J5_J6_w3" to="-E1" fromLane="0" toLane="0" dir="s" state="M"/>
    <connection from="E0" to=":clusterJ7_clusterJ3_J5_J6_w3" fromLane="0" toLane="0" dir="s" state="M"/>
</net>
