<?xml version="1.0" encoding="UTF-8"?>

<!-- generated on 2025-11-07 09:00:49 by Eclipse SUMO netedit Version 1.24.0
<neteditConfiguration xmlns:xsi="http://www.w3.org/2001/XMLSchema-instance" xsi:noNamespaceSchemaLocation="http://sumo.dlr.de/xsd/neteditConfiguration.xsd">

    <input>
        <sumocfg-file value="/media/nyrina/TNR/dev/trafic_system/carrefour4_netgenerate/carrefour.sumocfg"/>
        <route-files value="/media/nyrina/TNR/dev/trafic_system/carrefour4_netgenerate/carrefour.rou.xml"/>
        <sumo-net-file value="/media/nyrina/TNR/dev/trafic_system/carrefour4_netgenerate/carrefour_final.net.xml"/>
    </input>

    <output>
        <output-file value="/media/nyrina/TNR/dev/trafic_system/carrefour4_netgenerate/carrefour_final.net.xml"/>
    </output>

    <processing>
        <geometry.min-radius.fix.railways value="false"/>
        <geometry.avoid-overlap value="false"/>
        <geometry.max-grade.fix value="false"/>
        <offset.disable-normalization value="true"/>
        <lefthand value="0"/>
    </processing>

    <junctions>
        <no-internal-links value="false"/>
        <no-turnarounds value="true"/>
        <junctions.corner-detail value="5"/>
        <junctions.limit-turn-speed value="5.50"/>
        <rectangular-lane-cut value="0"/>
    </junctions>

    <pedestrian>
        <walkingareas value="1"/>
    </pedestrian>

</neteditConfiguration>
-->

<net version="1.20" junctionCornerDetail="5" walkingareas="true" limitTurnSpeed="5.50" avoidOverlap="0" xmlns:xsi="http://www.w3.org/2001/XMLSchema-instance" xsi:noNamespaceSchemaLocation="http://sumo.dlr.de/xsd/net_file.xsd">

    <location netOffset="50.00,50.00" convBoundary="0.00,0.00,100.00,100.00" origBoundary="-50.00,-50.00,50.00,50.00" projParameter="!"/>

    <edge id=":C_0" function="internal">
        <lane id=":C_0_0" index="0" disallow="pedestrian" speed="6.51" length="4.75" shape="45.20,60.40 44.85,57.95 43.80,56.20 43.60,56.08"/>
    </edge>
    <edge id=":C_1" function="internal">
        <lane id=":C_1_0" index="0" disallow="pedestrian" speed="13.90" length="20.80" shape="45.20,60.40 45.20,39.60"/>
        <lane id=":C_1_1" index="1" disallow="pedestrian" speed="13.90" length="20.80" shape="48.40,60.40 48.40,39.60"/>
    </edge>
    <edge id=":C_3" function="internal">
        <lane id=":C_3_0" index="0" disallow="pedestrian" speed="9.26" length="5.01" shape="48.40,60.40 49.11,55.44"/>
    </edge>
    <edge id=":C_4" function="internal">
        <lane id=":C_4_0" index="0" disallow="pedestrian" speed="3.65" length="1.44" shape="48.40,60.40 49.20,59.20"/>
    </edge>
    <edge id=":C_20" function="internal">
        <lane id=":C_20_0" index="0" disallow="pedestrian" speed="6.51" length="4.28" shape="43.60,56.08 42.05,55.15 39.60,54.80"/>
    </edge>
    <edge id=":C_21" function="internal">
        <lane id=":C_21_0" index="0" disallow="pedestrian" speed="9.26" length="14.34" shape="49.11,55.44 49.15,55.15 51.40,51.40 55.15,49.15 60.40,48.40"/>
    </edge>
    <edge id=":C_22" function="internal">
        <lane id=":C_22_0" index="0" disallow="pedestrian" speed="3.65" length="3.23" shape="49.20,59.20 50.00,58.80 50.80,59.20 51.60,60.40"/>
    </edge>
    <edge id=":C_5" function="internal">
        <lane id=":C_5_0" index="0" disallow="pedestrian" speed="6.51" length="4.75" shape="60.40,54.80 57.95,55.15 56.20,56.20 56.08,56.40"/>
    </edge>
    <edge id=":C_6" function="internal">
        <lane id=":C_6_0" index="0" disallow="pedestrian" speed="13.90" length="20.80" shape="60.40,54.80 39.60,54.80"/>
        <lane id=":C_6_1" index="1" disallow="pedestrian" speed="13.90" length="20.80" shape="60.40,51.60 39.60,51.60"/>
    </edge>
    <edge id=":C_8" function="internal">
        <lane id=":C_8_0" index="0" disallow="pedestrian" speed="9.26" length="5.01" shape="60.40,51.60 55.44,50.89"/>
    </edge>
    <edge id=":C_9" function="internal">
        <lane id=":C_9_0" index="0" disallow="pedestrian" speed="3.65" length="1.44" shape="60.40,51.60 59.20,50.80"/>
    </edge>
    <edge id=":C_23" function="internal">
        <lane id=":C_23_0" index="0" disallow="pedestrian" speed="6.51" length="4.28" shape="56.08,56.40 55.15,57.95 54.80,60.40"/>
    </edge>
    <edge id=":C_24" function="internal">
        <lane id=":C_24_0" index="0" disallow="pedestrian" speed="9.26" length="14.34" shape="55.44,50.89 55.15,50.85 51.40,48.60 49.15,44.85 48.40,39.60"/>
    </edge>
    <edge id=":C_25" function="internal">
        <lane id=":C_25_0" index="0" disallow="pedestrian" speed="3.65" length="3.23" shape="59.20,50.80 58.80,50.00 59.20,49.20 60.40,48.40"/>
    </edge>
    <edge id=":C_10" function="internal">
        <lane id=":C_10_0" index="0" disallow="pedestrian" speed="6.51" length="4.75" shape="54.80,39.60 55.15,42.05 56.20,43.80 56.40,43.92"/>
    </edge>
    <edge id=":C_11" function="internal">
        <lane id=":C_11_0" index="0" disallow="pedestrian" speed="13.90" length="20.80" shape="54.80,39.60 54.80,60.40"/>
        <lane id=":C_11_1" index="1" disallow="pedestrian" speed="13.90" length="20.80" shape="51.60,39.60 51.60,60.40"/>
    </edge>
    <edge id=":C_13" function="internal">
        <lane id=":C_13_0" index="0" disallow="pedestrian" speed="9.26" length="5.01" shape="51.60,39.60 50.89,44.56"/>
    </edge>
    <edge id=":C_14" function="internal">
        <lane id=":C_14_0" index="0" disallow="pedestrian" speed="3.65" length="1.44" shape="51.60,39.60 50.80,40.80"/>
    </edge>
    <edge id=":C_26" function="internal">
        <lane id=":C_26_0" index="0" disallow="pedestrian" speed="6.51" length="4.28" shape="56.40,43.92 57.95,44.85 60.40,45.20"/>
    </edge>
    <edge id=":C_27" function="internal">
        <lane id=":C_27_0" index="0" disallow="pedestrian" speed="9.26" length="14.34" shape="50.89,44.56 50.85,44.85 48.60,48.60 44.85,50.85 39.60,51.60"/>
    </edge>
    <edge id=":C_28" function="internal">
        <lane id=":C_28_0" index="0" disallow="pedestrian" speed="3.65" length="3.23" shape="50.80,40.80 50.00,41.20 49.20,40.80 48.40,39.60"/>
    </edge>
    <edge id=":C_15" function="internal">
        <lane id=":C_15_0" index="0" disallow="pedestrian" speed="6.51" length="4.75" shape="39.60,45.20 42.05,44.85 43.80,43.80 43.92,43.60"/>
    </edge>
    <edge id=":C_16" function="internal">
        <lane id=":C_16_0" index="0" disallow="pedestrian" speed="13.90" length="20.80" shape="39.60,45.20 60.40,45.20"/>
        <lane id=":C_16_1" index="1" disallow="pedestrian" speed="13.90" length="20.80" shape="39.60,48.40 60.40,48.40"/>
    </edge>
    <edge id=":C_18" function="internal">
        <lane id=":C_18_0" index="0" disallow="pedestrian" speed="9.26" length="5.01" shape="39.60,48.40 44.56,49.11"/>
    </edge>
    <edge id=":C_19" function="internal">
        <lane id=":C_19_0" index="0" disallow="pedestrian" speed="3.65" length="1.44" shape="39.60,48.40 40.80,49.20"/>
    </edge>
    <edge id=":C_29" function="internal">
        <lane id=":C_29_0" index="0" disallow="pedestrian" speed="6.51" length="4.28" shape="43.92,43.60 44.85,42.05 45.20,39.60"/>
    </edge>
    <edge id=":C_30" function="internal">
        <lane id=":C_30_0" index="0" disallow="pedestrian" speed="9.26" length="14.34" shape="44.56,49.11 44.85,49.15 48.60,51.40 50.85,55.15 51.60,60.40"/>
    </edge>
    <edge id=":C_31" function="internal">
        <lane id=":C_31_0" index="0" disallow="pedestrian" speed="3.65" length="3.23" shape="40.80,49.20 41.20,50.00 40.80,50.80 39.60,51.60"/>
    </edge>
    <edge id=":C_c0" function="crossing" crossingEdges="C2N N2C">
        <lane id=":C_c0_0" index="0" allow="pedestrian" speed="2.78" length="12.80" width="4.00" shape="56.40,58.40 43.60,58.40" outlineShape="56.40,60.40 43.60,60.40 39.60,56.40 39.60,58.40 41.60,60.40 43.60,60.40 39.60,56.40 60.40,56.40 59.18,56.51 58.18,56.84 57.40,57.40 56.84,58.18 56.51,59.18"/>
    </edge>
    <edge id=":C_c1" function="crossing" crossingEdges="C2E E2C">
        <lane id=":C_c1_0" index="0" allow="pedestrian" speed="2.78" length="12.80" width="4.00" shape="58.40,43.60 58.40,56.40" outlineShape="60.40,43.60 60.40,56.40 56.40,60.40 58.40,60.40 60.40,58.40 60.40,56.40 56.40,60.40 56.40,39.60 56.51,40.82 56.84,41.82 57.40,42.60 58.18,43.16 59.18,43.49"/>
    </edge>
    <edge id=":C_c2" function="crossing" crossingEdges="C2S S2C">
        <lane id=":C_c2_0" index="0" allow="pedestrian" speed="2.78" length="12.80" width="4.00" shape="43.60,41.60 56.40,41.60" outlineShape="43.60,39.60 56.40,39.60 60.40,43.60 60.40,41.60 58.40,39.60 56.40,39.60 60.40,43.60 39.60,43.60 40.82,43.49 41.82,43.16 42.60,42.60 43.16,41.82 43.49,40.82"/>
    </edge>
    <edge id=":C_c3" function="crossing" crossingEdges="C2W W2C">
        <lane id=":C_c3_0" index="0" allow="pedestrian" speed="2.78" length="12.80" width="4.00" shape="41.60,56.40 41.60,43.60" outlineShape="39.60,56.40 39.60,43.60 43.60,39.60 41.60,39.60 39.60,41.60 39.60,43.60 43.60,39.60 43.60,60.40 43.49,59.18 43.16,58.18 42.60,57.40 41.82,56.84 40.82,56.51"/>
    </edge>
    <edge id=":C_w0" function="walkingarea">
        <lane id=":C_w0_0" index="0" allow="pedestrian" speed="2.78" length="3.30" width="4.00" shape="39.60,56.40 39.60,58.40 41.60,60.40 43.60,60.40 43.49,59.18 43.16,58.18 42.60,57.40 41.82,56.84 40.82,56.51"/>
    </edge>
    <edge id=":C_w1" function="walkingarea">
        <lane id=":C_w1_0" index="0" allow="pedestrian" speed="2.78" length="3.30" width="4.00" shape="56.40,60.40 58.40,60.40 60.40,58.40 60.40,56.40 59.18,56.51 58.18,56.84 57.40,57.40 56.84,58.18 56.51,59.18"/>
    </edge>
    <edge id=":C_w2" function="walkingarea">
        <lane id=":C_w2_0" index="0" allow="pedestrian" speed="2.78" length="3.30" width="4.00" shape="60.40,43.60 60.40,41.60 58.40,39.60 56.40,39.60 56.51,40.82 56.84,41.82 57.40,42.60 58.18,43.16 59.18,43.49"/>
    </edge>
    <edge id=":C_w3" function="walkingarea">
        <lane id=":C_w3_0" index="0" allow="pedestrian" speed="2.78" length="3.30" width="4.00" shape="43.60,39.60 41.60,39.60 39.60,41.60 39.60,43.60 40.82,43.49 41.82,43.16 42.60,42.60 43.16,41.82 43.49,40.82"/>
    </edge>
    <edge id=":E_0" function="internal">
        <lane id=":E_0_0" index="0" disallow="pedestrian" speed="3.65" length="4.67" shape="100.00,48.40 101.20,49.20 101.60,50.00 101.20,50.80 100.00,51.60"/>
    </edge>
    <edge id=":E_w0" function="walkingarea">
        <lane id=":E_w0_0" index="0" allow="pedestrian" speed="2.78" length="14.80" width="2.00" shape="100.00,56.40 100.00,58.40 100.00,41.60 100.00,43.60"/>
    </edge>
    <edge id=":N_0" function="internal">
        <lane id=":N_0_0" index="0" disallow="pedestrian" speed="3.65" length="4.67" shape="51.60,100.00 50.80,101.20 50.00,101.60 49.20,101.20 48.40,100.00"/>
    </edge>
    <edge id=":N_w0" function="walkingarea">
        <lane id=":N_w0_0" index="0" allow="pedestrian" speed="2.78" length="14.80" width="2.00" shape="43.60,100.00 41.60,100.00 58.40,100.00 56.40,100.00"/>
    </edge>
    <edge id=":S_0" function="internal">
        <lane id=":S_0_0" index="0" disallow="pedestrian" speed="3.65" length="4.67" shape="48.40,0.00 49.20,-1.20 50.00,-1.60 50.80,-1.20 51.60,0.00"/>
    </edge>
    <edge id=":S_w0" function="walkingarea">
        <lane id=":S_w0_0" index="0" allow="pedestrian" speed="2.78" length="14.80" width="2.00" shape="56.40,0.00 58.40,0.00 41.60,0.00 43.60,0.00"/>
    </edge>
    <edge id=":W_0" function="internal">
        <lane id=":W_0_0" index="0" disallow="pedestrian" speed="3.65" length="4.67" shape="0.00,51.60 -1.20,50.80 -1.60,50.00 -1.20,49.20 0.00,48.40"/>
    </edge>
    <edge id=":W_w0" function="walkingarea">
        <lane id=":W_w0_0" index="0" allow="pedestrian" speed="2.78" length="14.80" width="2.00" shape="0.00,43.60 0.00,41.60 0.00,58.40 0.00,56.40"/>
    </edge>

    <edge id="C2E" from="C" to="E" priority="-1">
        <lane id="C2E_0" index="0" allow="pedestrian" speed="13.90" length="39.60" width="2.00" shape="60.40,42.60 100.00,42.60"/>
        <lane id="C2E_1" index="1" disallow="pedestrian" speed="13.90" length="39.60" shape="60.40,45.20 100.00,45.20"/>
        <lane id="C2E_2" index="2" disallow="pedestrian" speed="13.90" length="39.60" shape="60.40,48.40 100.00,48.40"/>
    </edge>
    <edge id="C2N" from="C" to="N" priority="-1">
        <lane id="C2N_0" index="0" allow="pedestrian" speed="13.90" length="39.60" width="2.00" shape="57.40,60.40 57.40,100.00"/>
        <lane id="C2N_1" index="1" disallow="pedestrian" speed="13.90" length="39.60" shape="54.80,60.40 54.80,100.00"/>
        <lane id="C2N_2" index="2" disallow="pedestrian" speed="13.90" length="39.60" shape="51.60,60.40 51.60,100.00"/>
    </edge>
    <edge id="C2S" from="C" to="S" priority="-1">
        <lane id="C2S_0" index="0" allow="pedestrian" speed="13.90" length="39.60" width="2.00" shape="42.60,39.60 42.60,0.00"/>
        <lane id="C2S_1" index="1" disallow="pedestrian" speed="13.90" length="39.60" shape="45.20,39.60 45.20,0.00"/>
        <lane id="C2S_2" index="2" disallow="pedestrian" speed="13.90" length="39.60" shape="48.40,39.60 48.40,0.00"/>
    </edge>
    <edge id="C2W" from="C" to="W" priority="-1">
        <lane id="C2W_0" index="0" allow="pedestrian" speed="13.90" length="39.60" width="2.00" shape="39.60,57.40 0.00,57.40"/>
        <lane id="C2W_1" index="1" disallow="pedestrian" speed="13.90" length="39.60" shape="39.60,54.80 0.00,54.80"/>
        <lane id="C2W_2" index="2" disallow="pedestrian" speed="13.90" length="39.60" shape="39.60,51.60 0.00,51.60"/>
    </edge>
    <edge id="E2C" from="E" to="C" priority="-1">
        <lane id="E2C_0" index="0" allow="pedestrian" speed="13.90" length="39.60" width="2.00" shape="100.00,57.40 60.40,57.40"/>
        <lane id="E2C_1" index="1" disallow="pedestrian" speed="13.90" length="39.60" shape="100.00,54.80 60.40,54.80"/>
        <lane id="E2C_2" index="2" disallow="pedestrian" speed="13.90" length="39.60" shape="100.00,51.60 60.40,51.60"/>
    </edge>
    <edge id="N2C" from="N" to="C" priority="-1">
        <lane id="N2C_0" index="0" allow="pedestrian" speed="13.90" length="39.60" width="2.00" shape="42.60,100.00 42.60,60.40"/>
        <lane id="N2C_1" index="1" disallow="pedestrian" speed="13.90" length="39.60" shape="45.20,100.00 45.20,60.40"/>
        <lane id="N2C_2" index="2" disallow="pedestrian" speed="13.90" length="39.60" shape="48.40,100.00 48.40,60.40"/>
    </edge>
    <edge id="S2C" from="S" to="C" priority="-1">
        <lane id="S2C_0" index="0" allow="pedestrian" speed="13.90" length="39.60" width="2.00" shape="57.40,0.00 57.40,39.60"/>
        <lane id="S2C_1" index="1" disallow="pedestrian" speed="13.90" length="39.60" shape="54.80,0.00 54.80,39.60"/>
        <lane id="S2C_2" index="2" disallow="pedestrian" speed="13.90" length="39.60" shape="51.60,0.00 51.60,39.60"/>
    </edge>
    <edge id="W2C" from="W" to="C" priority="-1">
        <lane id="W2C_0" index="0" allow="pedestrian" speed="13.90" length="39.60" width="2.00" shape="0.00,42.60 39.60,42.60"/>
        <lane id="W2C_1" index="1" disallow="pedestrian" speed="13.90" length="39.60" shape="0.00,45.20 39.60,45.20"/>
        <lane id="W2C_2" index="2" disallow="pedestrian" speed="13.90" length="39.60" shape="0.00,48.40 39.60,48.40"/>
    </edge>

    <tlLogic id="C" type="static" programID="0" offset="0">
        <phase duration="37" state="gGGggrrrrrgGGggrrrrrrGrG"/>
        <phase duration="5"  state="gGGggrrrrrgGGggrrrrrrrrr"/>
        <phase duration="3"  state="yyyyyrrrrryyyyyrrrrrrrrr"/>
        <phase duration="37" state="rrrrrgGGggrrrrrgGGggGrGr"/>
        <phase duration="5"  state="rrrrrgGGggrrrrrgGGggrrrr"/>
        <phase duration="3"  state="rrrrryyyyyrrrrryyyyyrrrr"/>
    </tlLogic>

    <junction id="C" type="traffic_light" x="50.00" y="50.00" incLanes="N2C_0 N2C_1 N2C_2 E2C_0 E2C_1 E2C_2 S2C_0 S2C_1 S2C_2 W2C_0 W2C_1 W2C_2 :C_w1_0 :C_w2_0 :C_w3_0 :C_w0_0" intLanes=":C_20_0 :C_1_0 :C_1_1 :C_21_0 :C_22_0 :C_23_0 :C_6_0 :C_6_1 :C_24_0 :C_25_0 :C_26_0 :C_11_0 :C_11_1 :C_27_0 :C_28_0 :C_29_0 :C_16_0 :C_16_1 :C_30_0 :C_31_0 :C_c0_0 :C_c1_0 :C_c2_0 :C_c3_0" shape="41.60,60.40 58.40,60.40 58.62,59.29 58.90,58.90 59.29,58.62 59.79,58.46 60.40,58.40 60.40,41.60 59.29,41.38 58.90,41.10 58.62,40.71 58.46,40.21 58.40,39.60 41.60,39.60 41.38,40.71 41.10,41.10 40.71,41.38 40.21,41.54 39.60,41.60 39.60,58.40 40.71,58.62 41.10,58.90 41.38,59.29 41.54,59.79">
        <request index="0"  response="100100000000000000000000" foes="100100000000000011000000" cont="1"/>
        <request index="1"  response="010101001000000100000000" foes="010101111110000111000000" cont="0"/>
        <request index="2"  response="010101001000000100000000" foes="010101111110000111000000" cont="0"/>
        <request index="3"  response="001101000001100100000000" foes="001101110001101111000000" cont="1"/>
        <request index="4"  response="000101000001100000000000" foes="000101000001100000000000" cont="1"/>
        <request index="5"  response="001100000001100000000000" foes="001100000001100000000000" cont="1"/>
        <request index="6"  response="101000000011100000001111" foes="101011000011100000001111" cont="0"/>
        <request index="7"  response="101000000011100000001111" foes="101011000011100000001111" cont="0"/>
        <request index="8"  response="011000110011100000001110" foes="011000110111100000001110" cont="1"/>
        <request index="9"  response="001000110000000000001000" foes="001000110000000000001000" cont="1"/>
        <request index="10" response="011000000000000000000000" foes="011000110000000000000000" cont="1"/>
        <request index="11" response="010101000000000100100000" foes="010101110000000111111000" cont="0"/>
        <request index="12" response="010101000000000100100000" foes="010101110000000111111000" cont="0"/>
        <request index="13" response="110001000000000100000110" foes="110011110000000111000110" cont="1"/>
        <request index="14" response="010000000000000100000110" foes="010000000000000100000110" cont="1"/>
        <request index="15" response="110000000000000000000110" foes="110000000000000000000110" cont="1"/>
        <request index="16" response="101000000011110000001110" foes="101000000011111100001110" cont="0"/>
        <request index="17" response="101000000011110000001110" foes="101000000011111100001110" cont="0"/>
        <request index="18" response="100100000011100011001110" foes="100100000011100011011110" cont="1"/>
        <request index="19" response="100000000010000011000000" foes="100000000010000011000000" cont="1"/>
        <request index="20" response="000000000000000000000000" foes="000001000001100000111111" cont="0"/>
        <request index="21" response="000000000000000000000000" foes="000000110000011111101000" cont="0"/>
        <request index="22" response="000000000000000000000000" foes="000000001111110100000110" cont="0"/>
        <request index="23" response="000000000000000000000000" foes="000011111010000011000001" cont="0"/>
    </junction>
    <junction id="E" type="priority" x="100.00" y="50.00" incLanes="C2E_0 C2E_1 C2E_2" intLanes=":E_0_0" shape="100.00,50.00 100.00,41.60 100.00,50.00">
        <request index="0" response="0" foes="0" cont="0"/>
    </junction>
    <junction id="N" type="priority" x="50.00" y="100.00" incLanes="C2N_0 C2N_1 C2N_2" intLanes=":N_0_0" shape="50.00,100.00 58.40,100.00 50.00,100.00">
        <request index="0" response="0" foes="0" cont="0"/>
    </junction>
    <junction id="S" type="priority" x="50.00" y="0.00" incLanes="C2S_0 C2S_1 C2S_2" intLanes=":S_0_0" shape="50.00,0.00 41.60,0.00 50.00,0.00">
        <request index="0" response="0" foes="0" cont="0"/>
    </junction>
    <junction id="W" type="priority" x="0.00" y="50.00" incLanes="C2W_0 C2W_1 C2W_2" intLanes=":W_0_0" shape="0.00,50.00 0.00,58.40 0.00,50.00">
        <request index="0" response="0" foes="0" cont="0"/>
    </junction>

    <junction id=":C_20_0" type="internal" x="43.60" y="56.08" incLanes=":C_0_0" intLanes=":C_6_0 :C_6_1 :C_13_0 :C_19_0 :C_c0_0 :C_c3_0"/>
    <junction id=":C_21_0" type="internal" x="49.11" y="55.44" incLanes=":C_3_0 S2C_1 S2C_2" intLanes=":C_6_0 :C_6_1 :C_8_0 :C_9_0 :C_10_0 :C_11_0 :C_11_1 :C_16_0 :C_16_1 :C_18_0 :C_c0_0 :C_c1_0"/>
    <junction id=":C_22_0" type="internal" x="49.20" y="59.20" incLanes=":C_4_0 E2C_1 S2C_1 S2C_2 W2C_2" intLanes=":C_5_0 :C_11_0 :C_11_1 :C_18_0 :C_c0_0 :C_c0_0"/>
    <junction id=":C_23_0" type="internal" x="56.08" y="56.40" incLanes=":C_5_0" intLanes=":C_4_0 :C_11_0 :C_11_1 :C_18_0 :C_c0_0 :C_c1_0"/>
    <junction id=":C_24_0" type="internal" x="55.44" y="50.89" incLanes=":C_8_0 W2C_1 W2C_2" intLanes=":C_1_0 :C_1_1 :C_3_0 :C_11_0 :C_11_1 :C_13_0 :C_14_0 :C_15_0 :C_16_0 :C_16_1 :C_c1_0 :C_c2_0"/>
    <junction id=":C_25_0" type="internal" x="59.20" y="50.80" incLanes=":C_9_0 N2C_2 S2C_1 W2C_1 W2C_2" intLanes=":C_3_0 :C_10_0 :C_16_0 :C_16_1 :C_c1_0 :C_c1_0"/>
    <junction id=":C_26_0" type="internal" x="56.40" y="43.92" incLanes=":C_10_0" intLanes=":C_3_0 :C_9_0 :C_16_0 :C_16_1 :C_c1_0 :C_c2_0"/>
    <junction id=":C_27_0" type="internal" x="50.89" y="44.56" incLanes=":C_13_0 N2C_1 N2C_2" intLanes=":C_0_0 :C_1_0 :C_1_1 :C_6_0 :C_6_1 :C_8_0 :C_16_0 :C_16_1 :C_18_0 :C_19_0 :C_c2_0 :C_c3_0"/>
    <junction id=":C_28_0" type="internal" x="50.80" y="40.80" incLanes=":C_14_0 E2C_2 N2C_1 N2C_2 W2C_1" intLanes=":C_1_0 :C_1_1 :C_8_0 :C_15_0 :C_c2_0 :C_c2_0"/>
    <junction id=":C_29_0" type="internal" x="43.92" y="43.60" incLanes=":C_15_0" intLanes=":C_1_0 :C_1_1 :C_8_0 :C_14_0 :C_c2_0 :C_c3_0"/>
    <junction id=":C_30_0" type="internal" x="44.56" y="49.11" incLanes=":C_18_0 E2C_1 E2C_2" intLanes=":C_1_0 :C_1_1 :C_3_0 :C_4_0 :C_5_0 :C_6_0 :C_6_1 :C_11_0 :C_11_1 :C_13_0 :C_c0_0 :C_c3_0"/>
    <junction id=":C_31_0" type="internal" x="40.80" y="49.20" incLanes=":C_19_0 E2C_1 E2C_2 N2C_1 S2C_2" intLanes=":C_0_0 :C_6_0 :C_6_1 :C_13_0 :C_c3_0 :C_c3_0"/>

    <connection from="C2E" to="E2C" fromLane="2" toLane="2" via=":E_0_0" dir="t" state="M"/>
    <connection from="C2N" to="N2C" fromLane="2" toLane="2" via=":N_0_0" dir="t" state="M"/>
    <connection from="C2S" to="S2C" fromLane="2" toLane="2" via=":S_0_0" dir="t" state="M"/>
    <connection from="C2W" to="W2C" fromLane="2" toLane="2" via=":W_0_0" dir="t" state="M"/>
    <connection from="E2C" to="C2N" fromLane="1" toLane="1" via=":C_5_0" tl="C" linkIndex="5" dir="r" state="o"/>
    <connection from="E2C" to="C2W" fromLane="1" toLane="1" via=":C_6_0" tl="C" linkIndex="6" dir="s" state="o"/>
    <connection from="E2C" to="C2W" fromLane="2" toLane="2" via=":C_6_1" tl="C" linkIndex="7" dir="s" state="o"/>
    <connection from="E2C" to="C2S" fromLane="2" toLane="2" via=":C_8_0" tl="C" linkIndex="8" dir="l" state="o"/>
    <connection from="E2C" to="C2E" fromLane="2" toLane="2" via=":C_9_0" tl="C" linkIndex="9" dir="t" state="o"/>
    <connection from="N2C" to="C2W" fromLane="1" toLane="1" via=":C_0_0" tl="C" linkIndex="0" dir="r" state="o"/>
    <connection from="N2C" to="C2S" fromLane="1" toLane="1" via=":C_1_0" tl="C" linkIndex="1" dir="s" state="o"/>
    <connection from="N2C" to="C2S" fromLane="2" toLane="2" via=":C_1_1" tl="C" linkIndex="2" dir="s" state="o"/>
    <connection from="N2C" to="C2E" fromLane="2" toLane="2" via=":C_3_0" tl="C" linkIndex="3" dir="l" state="o"/>
    <connection from="N2C" to="C2N" fromLane="2" toLane="2" via=":C_4_0" tl="C" linkIndex="4" dir="t" state="o"/>
    <connection from="S2C" to="C2E" fromLane="1" toLane="1" via=":C_10_0" tl="C" linkIndex="10" dir="r" state="o"/>
    <connection from="S2C" to="C2N" fromLane="1" toLane="1" via=":C_11_0" tl="C" linkIndex="11" dir="s" state="o"/>
    <connection from="S2C" to="C2N" fromLane="2" toLane="2" via=":C_11_1" tl="C" linkIndex="12" dir="s" state="o"/>
    <connection from="S2C" to="C2W" fromLane="2" toLane="2" via=":C_13_0" tl="C" linkIndex="13" dir="l" state="o"/>
    <connection from="S2C" to="C2S" fromLane="2" toLane="2" via=":C_14_0" tl="C" linkIndex="14" dir="t" state="o"/>
    <connection from="W2C" to="C2S" fromLane="1" toLane="1" via=":C_15_0" tl="C" linkIndex="15" dir="r" state="o"/>
    <connection from="W2C" to="C2E" fromLane="1" toLane="1" via=":C_16_0" tl="C" linkIndex="16" dir="s" state="o"/>
    <connection from="W2C" to="C2E" fromLane="2" toLane="2" via=":C_16_1" tl="C" linkIndex="17" dir="s" state="o"/>
    <connection from="W2C" to="C2N" fromLane="2" toLane="2" via=":C_18_0" tl="C" linkIndex="18" dir="l" state="o"/>
    <connection from="W2C" to="C2W" fromLane="2" toLane="2" via=":C_19_0" tl="C" linkIndex="19" dir="t" state="o"/>

    <connection from=":C_0" to="C2W" fromLane="0" toLane="1" via=":C_20_0" dir="r" state="m"/>
    <connection from=":C_20" to="C2W" fromLane="0" toLane="1" dir="r" state="m"/>
    <connection from=":C_1" to="C2S" fromLane="0" toLane="1" dir="s" state="M"/>
    <connection from=":C_1" to="C2S" fromLane="1" toLane="2" dir="s" state="M"/>
    <connection from=":C_3" to="C2E" fromLane="0" toLane="2" via=":C_21_0" dir="l" state="m"/>
    <connection from=":C_21" to="C2E" fromLane="0" toLane="2" dir="l" state="m"/>
    <connection from=":C_4" to="C2N" fromLane="0" toLane="2" via=":C_22_0" dir="t" state="m"/>
    <connection from=":C_22" to="C2N" fromLane="0" toLane="2" dir="t" state="m"/>
    <connection from=":C_5" to="C2N" fromLane="0" toLane="1" via=":C_23_0" dir="r" state="m"/>
    <connection from=":C_23" to="C2N" fromLane="0" toLane="1" dir="r" state="m"/>
    <connection from=":C_6" to="C2W" fromLane="0" toLane="1" dir="s" state="M"/>
    <connection from=":C_6" to="C2W" fromLane="1" toLane="2" dir="s" state="M"/>
    <connection from=":C_8" to="C2S" fromLane="0" toLane="2" via=":C_24_0" dir="l" state="m"/>
    <connection from=":C_24" to="C2S" fromLane="0" toLane="2" dir="l" state="m"/>
    <connection from=":C_9" to="C2E" fromLane="0" toLane="2" via=":C_25_0" dir="t" state="m"/>
    <connection from=":C_25" to="C2E" fromLane="0" toLane="2" dir="t" state="m"/>
    <connection from=":C_10" to="C2E" fromLane="0" toLane="1" via=":C_26_0" dir="r" state="m"/>
    <connection from=":C_26" to="C2E" fromLane="0" toLane="1" dir="r" state="m"/>
    <connection from=":C_11" to="C2N" fromLane="0" toLane="1" dir="s" state="M"/>
    <connection from=":C_11" to="C2N" fromLane="1" toLane="2" dir="s" state="M"/>
    <connection from=":C_13" to="C2W" fromLane="0" toLane="2" via=":C_27_0" dir="l" state="m"/>
    <connection from=":C_27" to="C2W" fromLane="0" toLane="2" dir="l" state="m"/>
    <connection from=":C_14" to="C2S" fromLane="0" toLane="2" via=":C_28_0" dir="t" state="m"/>
    <connection from=":C_28" to="C2S" fromLane="0" toLane="2" dir="t" state="m"/>
    <connection from=":C_15" to="C2S" fromLane="0" toLane="1" via=":C_29_0" dir="r" state="m"/>
    <connection from=":C_29" to="C2S" fromLane="0" toLane="1" dir="r" state="m"/>
    <connection from=":C_16" to="C2E" fromLane="0" toLane="1" dir="s" state="M"/>
    <connection from=":C_16" to="C2E" fromLane="1" toLane="2" dir="s" state="M"/>
    <connection from=":C_18" to="C2N" fromLane="0" toLane="2" via=":C_30_0" dir="l" state="m"/>
    <connection from=":C_30" to="C2N" fromLane="0" toLane="2" dir="l" state="m"/>
    <connection from=":C_19" to="C2W" fromLane="0" toLane="2" via=":C_31_0" dir="t" state="m"/>
    <connection from=":C_31" to="C2W" fromLane="0" toLane="2" dir="t" state="m"/>
    <connection from=":E_0" to="E2C" fromLane="0" toLane="2" dir="t" state="M"/>
    <connection from=":N_0" to="N2C" fromLane="0" toLane="2" dir="t" state="M"/>
    <connection from=":S_0" to="S2C" fromLane="0" toLane="2" dir="t" state="M"/>
    <connection from=":W_0" to="W2C" fromLane="0" toLane="2" dir="t" state="M"/>

    <connection from=":C_c0" to=":C_w0" fromLane="0" toLane="0" dir="s" state="M"/>
    <connection from=":C_c1" to=":C_w1" fromLane="0" toLane="0" dir="s" state="M"/>
    <connection from=":C_c2" to=":C_w2" fromLane="0" toLane="0" dir="s" state="M"/>
    <connection from=":C_c3" to=":C_w3" fromLane="0" toLane="0" dir="s" state="M"/>
    <connection from=":C_w0" to=":C_c3" fromLane="0" toLane="0" tl="C" linkIndex="23" dir="s" state="M"/>
    <connection from=":C_w0" to="C2W" fromLane="0" toLane="0" dir="s" state="M"/>
    <connection from="N2C" to=":C_w0" fromLane="0" toLane="0" dir="s" state="M"/>
    <connection from=":C_w1" to=":C_c0" fromLane="0" toLane="0" tl="C" linkIndex="20" dir="s" state="M"/>
    <connection from=":C_w1" to="C2N" fromLane="0" toLane="0" dir="s" state="M"/>
    <connection from="E2C" to=":C_w1" fromLane="0" toLane="0" dir="s" state="M"/>
    <connection from=":C_w2" to=":C_c1" fromLane="0" toLane="0" tl="C" linkIndex="21" dir="s" state="M"/>
    <connection from=":C_w2" to="C2E" fromLane="0" toLane="0" dir="s" state="M"/>
    <connection from="S2C" to=":C_w2" fromLane="0" toLane="0" dir="s" state="M"/>
    <connection from=":C_w3" to=":C_c2" fromLane="0" toLane="0" tl="C" linkIndex="22" dir="s" state="M"/>
    <connection from=":C_w3" to="C2S" fromLane="0" toLane="0" dir="s" state="M"/>
    <connection from="W2C" to=":C_w3" fromLane="0" toLane="0" dir="s" state="M"/>
    <connection from=":E_w0" to="E2C" fromLane="0" toLane="0" dir="s" state="M"/>
    <connection from="C2E" to=":E_w0" fromLane="0" toLane="0" dir="s" state="M"/>
    <connection from=":N_w0" to="N2C" fromLane="0" toLane="0" dir="s" state="M"/>
    <connection from="C2N" to=":N_w0" fromLane="0" toLane="0" dir="s" state="M"/>
    <connection from=":S_w0" to="S2C" fromLane="0" toLane="0" dir="s" state="M"/>
    <connection from="C2S" to=":S_w0" fromLane="0" toLane="0" dir="s" state="M"/>
    <connection from=":W_w0" to="W2C" fromLane="0" toLane="0" dir="s" state="M"/>
    <connection from="C2W" to=":W_w0" fromLane="0" toLane="0" dir="s" state="M"/>
</net>
