<edges>
    <!-- Entrées vers le centre -->
    <edge id="N2C" from="N" to="C" numLanes="2" speed="13.9"/>
    <edge id="S2C" from="S" to="C" numLanes="2" speed="13.9"/>
    <edge id="E2C" from="E" to="C" numLanes="2" speed="13.9"/>
    <edge id="W2C" from="W" to="C" numLanes="2" speed="13.9"/>
    
    <!-- Sorties depuis le centre -->
    <edge id="C2N" from="C" to="N" numLanes="2" speed="13.9"/>
    <edge id="C2S" from="C" to="S" numLanes="2" speed="13.9"/>
    <edge id="C2E" from="C" to="E" numLanes="2" speed="13.9"/>
    <edge id="C2W" from="C" to="W" numLanes="2" speed="13.9"/>
</edges>
